functions/OneTimeScripts/validationAgainstOpenDSS_MATLAB/ieee123_1ph_created/results/pv010_batt010/powers7.csv
Element, Terminal, P(kW), Q(kvar),  P_Normal, Q_Normal, P_Emergency, Q_Emergency
"Line.L115"             ,   1,       764.0,       220.6,         0.0,         0.0,         0.0,         0.0
"Line.L115"             ,   2,      -761.5,      -215.4
"Line.L1"               ,   1,         4.5,         2.2,         0.0,         0.0,         0.0,         0.0
"Line.L1"               ,   2,        -4.5,        -2.2
"Line.L2"               ,   1,        22.3,        11.1,         0.0,         0.0,         0.0,         0.0
"Line.L2"               ,   2,       -22.3,       -11.1
"Line.L3"               ,   1,       725.9,       197.6,         0.0,         0.0,         0.0,         0.0
"Line.L3"               ,   2,      -724.1,      -194.1
"Line.L4"               ,   1,         8.9,         4.5,         0.0,         0.0,         0.0,         0.0
"Line.L4"               ,   2,        -8.9,        -4.5
"Line.L5"               ,   1,        13.4,         6.7,         0.0,         0.0,         0.0,         0.0
"Line.L5"               ,   2,       -13.4,        -6.7
"Line.L6"               ,   1,         8.9,         4.5,         0.0,         0.0,         0.0,         0.0
"Line.L6"               ,   2,        -8.9,        -4.5
"Line.L7"               ,   1,       719.7,       191.9,         0.0,         0.0,         0.0,         0.0
"Line.L7"               ,   2,      -718.6,      -189.6
"Line.L8"               ,   1,         4.5,         2.2,         0.0,         0.0,         0.0,         0.0
"Line.L8"               ,   2,        -4.5,        -2.2
"Line.L9"               ,   1,        20.9,        11.1,         0.0,         0.0,         0.0,         0.0
"Line.L9"               ,   2,       -20.9,       -11.1
"Line.L10"              ,   1,       693.2,       176.2,         0.0,         0.0,         0.0,         0.0
"Line.L10"              ,   2,      -691.6,      -173.0
"Line.L11"              ,   1,        13.4,         6.7,         0.0,         0.0,         0.0,         0.0
"Line.L11"              ,   2,       -13.4,        -6.7
"Line.L12"              ,   1,        22.3,        11.1,         0.0,         0.0,         0.0,         0.0
"Line.L12"              ,   2,       -22.3,       -11.1
"Line.L13"              ,   1,       241.0,       146.9,         0.0,         0.0,         0.0,         0.0
"Line.L13"              ,   2,      -240.4,      -145.5
"Line.L14"              ,   1,         8.9,         4.5,         0.0,         0.0,         0.0,         0.0
"Line.L14"              ,   2,        -8.9,        -4.5
"Line.L15"              ,   1,         4.5,         2.2,         0.0,         0.0,         0.0,         0.0
"Line.L15"              ,   2,        -4.5,        -2.2
"Line.L16"              ,   1,         8.9,         4.5,         0.0,         0.0,         0.0,         0.0
"Line.L16"              ,   2,        -8.9,        -4.5
"Line.L17"              ,   1,         4.5,         2.2,         0.0,         0.0,         0.0,         0.0
"Line.L17"              ,   2,        -4.5,        -2.2
"Line.L18"              ,   1,        17.8,         8.9,         0.0,         0.0,         0.0,         0.0
"Line.L18"              ,   2,       -17.8,        -8.9
"Line.L19"              ,   1,        61.1,        31.2,         0.0,         0.0,         0.0,         0.0
"Line.L19"              ,   2,       -61.0,       -31.2
"Line.L20"              ,   1,         8.9,         4.5,         0.0,         0.0,         0.0,         0.0
"Line.L20"              ,   2,        -8.9,        -4.5
"Line.L21"              ,   1,         8.9,         4.5,         0.0,         0.0,         0.0,         0.0
"Line.L21"              ,   2,        -8.9,        -4.5
"Line.L22"              ,   1,        52.1,        26.7,         0.0,         0.0,         0.0,         0.0
"Line.L22"              ,   2,       -52.1,       -26.7
"Line.L23"              ,   1,         8.9,         4.5,         0.0,         0.0,         0.0,         0.0
"Line.L23"              ,   2,        -8.9,        -4.5
"Line.L24"              ,   1,        43.2,        22.3,         0.0,         0.0,         0.0,         0.0
"Line.L24"              ,   2,       -43.2,       -22.3
"Line.L25"              ,   1,        17.8,         8.9,         0.0,         0.0,         0.0,         0.0
"Line.L25"              ,   2,       -17.8,        -8.9
"Line.L26"              ,   1,        25.4,        13.4,         0.0,         0.0,         0.0,         0.0
"Line.L26"              ,   2,       -25.4,       -13.4
"Line.L27"              ,   1,         8.9,         4.5,         0.0,         0.0,         0.0,         0.0
"Line.L27"              ,   2,        -8.9,        -4.5
"Line.L28"              ,   1,         8.9,         4.5,         0.0,         0.0,         0.0,         0.0
"Line.L28"              ,   2,        -8.9,        -4.5
"Line.L29"              ,   1,         8.9,         4.5,         0.0,         0.0,         0.0,         0.0
"Line.L29"              ,   2,        -8.9,        -4.5
"Line.L30"              ,   1,        17.8,         8.9,         0.0,         0.0,         0.0,         0.0
"Line.L30"              ,   2,       -17.8,        -8.9
"Line.L31"              ,   1,         8.9,         4.5,         0.0,         0.0,         0.0,         0.0
"Line.L31"              ,   2,        -8.9,        -4.5
"Line.L32"              ,   1,         0.0,        -0.0,         0.0,         0.0,         0.0,         0.0
"Line.L32"              ,   2,        -0.0,        -0.0
"Line.L33"              ,   1,         4.5,         2.2,         0.0,         0.0,         0.0,         0.0
"Line.L33"              ,   2,        -4.5,        -2.2
"Line.L34"              ,   1,        13.4,         6.7,         0.0,         0.0,         0.0,         0.0
"Line.L34"              ,   2,       -13.4,        -6.7
"Line.L35"              ,   1,        17.8,         8.9,         0.0,         0.0,         0.0,         0.0
"Line.L35"              ,   2,       -17.8,        -8.9
"Line.L36"              ,   1,       134.6,        91.8,         0.0,         0.0,         0.0,         0.0
"Line.L36"              ,   2,      -134.6,       -91.6
"Line.L37"              ,   1,         8.9,         4.5,         0.0,         0.0,         0.0,         0.0
"Line.L37"              ,   2,        -8.9,        -4.5
"Line.L38"              ,   1,         8.9,         4.5,         0.0,         0.0,         0.0,         0.0
"Line.L38"              ,   2,        -8.9,        -4.5
"Line.L39"              ,   1,         4.5,         2.2,         0.0,         0.0,         0.0,         0.0
"Line.L39"              ,   2,        -4.5,        -2.2
"Line.L40"              ,   1,         4.5,         2.2,         0.0,         0.0,         0.0,         0.0
"Line.L40"              ,   2,        -4.5,        -2.2
"Line.L41"              ,   1,       130.1,        89.4,         0.0,         0.0,         0.0,         0.0
"Line.L41"              ,   2,      -130.0,       -89.3
"Line.L42"              ,   1,         8.9,         4.5,         0.0,         0.0,         0.0,         0.0
"Line.L42"              ,   2,        -8.9,        -4.5
"Line.L43"              ,   1,       116.7,        82.6,         0.0,         0.0,         0.0,         0.0
"Line.L43"              ,   2,      -116.6,       -82.5
"Line.L44"              ,   1,         8.9,         4.5,         0.0,         0.0,         0.0,         0.0
"Line.L44"              ,   2,        -8.9,        -4.5
"Line.L45"              ,   1,       107.7,        78.0,         0.0,         0.0,         0.0,         0.0
"Line.L45"              ,   2,      -107.7,       -77.9
"Line.L46"              ,   1,         4.5,         2.2,         0.0,         0.0,         0.0,         0.0
"Line.L46"              ,   2,        -4.5,        -2.2
"Line.L47"              ,   1,        39.8,        33.4,         0.0,         0.0,         0.0,         0.0
"Line.L47"              ,   2,       -39.8,       -33.4
"Line.L48"              ,   1,        44.5,        27.8,         0.0,         0.0,         0.0,         0.0
"Line.L48"              ,   2,       -44.5,       -27.8
"Line.L49"              ,   1,        13.4,         6.7,         0.0,         0.0,         0.0,         0.0
"Line.L49"              ,   2,       -13.4,        -6.7
"Line.L50"              ,   1,         4.5,         2.2,         0.0,         0.0,         0.0,         0.0
"Line.L50"              ,   2,        -4.5,        -2.2
"Line.L51"              ,   1,         0.0,        -0.0,         0.0,         0.0,         0.0,         0.0
"Line.L51"              ,   2,        -0.0,         0.0
"Line.L52"              ,   1,       418.6,         9.0,         0.0,         0.0,         0.0,         0.0
"Line.L52"              ,   2,      -418.3,        -8.3
"Line.L53"              ,   1,       409.4,         3.8,         0.0,         0.0,         0.0,         0.0
"Line.L53"              ,   2,      -409.2,        -3.4
"Line.L54"              ,   1,         8.9,         4.5,         0.0,         0.0,         0.0,         0.0
"Line.L54"              ,   2,        -8.9,        -4.5
"Line.L55"              ,   1,       400.3,        -1.1,         0.0,         0.0,         0.0,         0.0
"Line.L55"              ,   2,      -399.7,         2.2
"Line.L56"              ,   1,         4.5,         2.2,         0.0,         0.0,         0.0,         0.0
"Line.L56"              ,   2,        -4.5,        -2.2
"Line.L57"              ,   1,         8.2,         4.5,         0.0,         0.0,         0.0,         0.0
"Line.L57"              ,   2,        -8.2,        -4.5
"Line.L58"              ,   1,       391.4,        -6.7,         0.0,         0.0,         0.0,         0.0
"Line.L58"              ,   2,      -390.2,         9.1
"Line.L59"              ,   1,         4.5,         2.2,         0.0,         0.0,         0.0,         0.0
"Line.L59"              ,   2,        -4.5,        -2.2
"Line.L60"              ,   1,         0.0,        -0.0,         0.0,         0.0,         0.0,         0.0
"Line.L60"              ,   2,        -0.0,         0.0
"Line.L61"              ,   1,        77.9,        46.8,         0.0,         0.0,         0.0,         0.0
"Line.L61"              ,   2,       -77.9,       -46.7
"Line.L62"              ,   1,        69.0,        42.3,         0.0,         0.0,         0.0,         0.0
"Line.L62"              ,   2,       -68.9,       -42.3
"Line.L63"              ,   1,        60.0,        37.8,         0.0,         0.0,         0.0,         0.0
"Line.L63"              ,   2,       -60.0,       -37.8
"Line.L64"              ,   1,        43.3,        30.0,         0.0,         0.0,         0.0,         0.0
"Line.L64"              ,   2,       -43.2,       -30.0
"Line.L65"              ,   1,        16.7,         7.8,         0.0,         0.0,         0.0,         0.0
"Line.L65"              ,   2,       -16.7,        -7.8
"Line.L66"              ,   1,        26.7,        13.4,         0.0,         0.0,         0.0,         0.0
"Line.L66"              ,   2,       -26.7,       -13.4
"Line.L67"              ,   1,       184.0,      -121.4,         0.0,         0.0,         0.0,         0.0
"Line.L67"              ,   2,      -183.8,       121.7
"Line.L68"              ,   1,        96.8,        49.1,         0.0,         0.0,         0.0,         0.0
"Line.L68"              ,   2,       -96.7,       -49.1
"Line.L69"              ,   1,        22.3,        11.1,         0.0,         0.0,         0.0,         0.0
"Line.L69"              ,   2,       -22.3,       -11.1
"Line.L70"              ,   1,        13.4,         6.7,         0.0,         0.0,         0.0,         0.0
"Line.L70"              ,   2,       -13.4,        -6.7
"Line.L71"              ,   1,         8.9,         4.5,         0.0,         0.0,         0.0,         0.0
"Line.L71"              ,   2,        -8.9,        -4.5
"Line.L72"              ,   1,        26.7,        13.4,         0.0,         0.0,         0.0,         0.0
"Line.L72"              ,   2,       -26.7,       -13.4
"Line.L73"              ,   1,       157.1,      -135.1,         0.0,         0.0,         0.0,         0.0
"Line.L73"              ,   2,      -157.0,       135.3
"Line.L74"              ,   1,        17.8,         8.9,         0.0,         0.0,         0.0,         0.0
"Line.L74"              ,   2,       -17.8,        -8.9
"Line.L75"              ,   1,         8.9,         4.5,         0.0,         0.0,         0.0,         0.0
"Line.L75"              ,   2,        -8.9,        -4.5
"Line.L76"              ,   1,        54.0,      -158.4,         0.0,         0.0,         0.0,         0.0
"Line.L76"              ,   2,       -53.9,       158.6
"Line.L77"              ,   1,        56.6,       -17.0,         0.0,         0.0,         0.0,         0.0
"Line.L77"              ,   2,       -56.6,        17.0
"Line.L78"              ,   1,        45.0,      -163.1,         0.0,         0.0,         0.0,         0.0
"Line.L78"              ,   2,       -44.9,       163.1
"Line.L79"              ,   1,         8.9,         4.5,         0.0,         0.0,         0.0,         0.0
"Line.L79"              ,   2,        -8.9,        -4.5
"Line.L80"              ,   1,        36.0,      -167.6,         0.0,         0.0,         0.0,         0.0
"Line.L80"              ,   2,       -35.9,       167.9
"Line.L81"              ,   1,        27.0,      -172.4,         0.0,         0.0,         0.0,         0.0
"Line.L81"              ,   2,       -26.9,       172.5
"Line.L82"              ,   1,        13.5,      -179.2,         0.0,         0.0,         0.0,         0.0
"Line.L82"              ,   2,       -13.5,       179.3
"Line.L83"              ,   1,        13.4,         6.7,         0.0,         0.0,         0.0,         0.0
"Line.L83"              ,   2,       -13.4,        -6.7
"Line.L84"              ,   1,         4.5,      -183.8,         0.0,         0.0,         0.0,         0.0
"Line.L84"              ,   2,        -4.5,       184.0
"Line.L85"              ,   1,         8.9,         4.5,         0.0,         0.0,         0.0,         0.0
"Line.L85"              ,   2,        -8.9,        -4.5
"Line.L86"              ,   1,        52.1,       -19.2,         0.0,         0.0,         0.0,         0.0
"Line.L86"              ,   2,       -52.1,        19.3
"Line.L87"              ,   1,         8.9,       -10.9,         0.0,         0.0,         0.0,         0.0
"Line.L87"              ,   2,        -8.9,        10.9
"Line.L88"              ,   1,        35.6,       -12.8,         0.0,         0.0,         0.0,         0.0
"Line.L88"              ,   2,       -35.6,        12.9
"Line.L89"              ,   1,         8.9,       -10.9,         0.0,         0.0,         0.0,         0.0
"Line.L89"              ,   2,        -8.9,        10.9
"Line.L90"              ,   1,        26.7,        -2.0,         0.0,         0.0,         0.0,         0.0
"Line.L90"              ,   2,       -26.7,         2.0
"Line.L91"              ,   1,         8.9,       -10.9,         0.0,         0.0,         0.0,         0.0
"Line.L91"              ,   2,        -8.9,        10.9
"Line.L92"              ,   1,        17.8,         8.9,         0.0,         0.0,         0.0,         0.0
"Line.L92"              ,   2,       -17.8,        -8.9
"Line.L93"              ,   1,         8.9,         4.5,         0.0,         0.0,         0.0,         0.0
"Line.L93"              ,   2,        -8.9,        -4.5
"Line.L94"              ,   1,         8.9,         4.5,         0.0,         0.0,         0.0,         0.0
"Line.L94"              ,   2,        -8.9,        -4.5
"Line.L95"              ,   1,         4.5,         2.2,         0.0,         0.0,         0.0,         0.0
"Line.L95"              ,   2,        -4.5,        -2.2
"Line.L96"              ,   1,        25.4,        13.4,         0.0,         0.0,         0.0,         0.0
"Line.L96"              ,   2,       -25.4,       -13.4
"Line.L97"              ,   1,        16.5,         8.9,         0.0,         0.0,         0.0,         0.0
"Line.L97"              ,   2,       -16.5,        -8.9
"Line.L98"              ,   1,         7.6,         4.4,         0.0,         0.0,         0.0,         0.0
"Line.L98"              ,   2,        -7.6,        -4.4
"Line.L99"              ,   1,         0.0,        -0.0,         0.0,         0.0,         0.0,         0.0
"Line.L99"              ,   2,        -0.0,        -0.0
"Line.L118"             ,   1,        71.3,        35.7,         0.0,         0.0,         0.0,         0.0
"Line.L118"             ,   2,       -71.3,       -35.7
"Line.L100"             ,   1,        22.3,        11.1,         0.0,         0.0,         0.0,         0.0
"Line.L100"             ,   2,       -22.3,       -11.1
"Line.L101"             ,   1,        49.1,        24.5,         0.0,         0.0,         0.0,         0.0
"Line.L101"             ,   2,       -49.0,       -24.5
"Line.L102"             ,   1,        17.8,         8.9,         0.0,         0.0,         0.0,         0.0
"Line.L102"             ,   2,       -17.8,        -8.9
"Line.L103"             ,   1,         8.9,         4.5,         0.0,         0.0,         0.0,         0.0
"Line.L103"             ,   2,        -8.9,        -4.5
"Line.L104"             ,   1,        17.8,         8.9,         0.0,         0.0,         0.0,         0.0
"Line.L104"             ,   2,       -17.8,        -8.9
"Line.L105"             ,   1,        31.2,        15.6,         0.0,         0.0,         0.0,         0.0
"Line.L105"             ,   2,       -31.2,       -15.6
"Line.L106"             ,   1,         8.9,         4.5,         0.0,         0.0,         0.0,         0.0
"Line.L106"             ,   2,        -8.9,        -4.5
"Line.L107"             ,   1,        31.2,        15.6,         0.0,         0.0,         0.0,         0.0
"Line.L107"             ,   2,       -31.2,       -15.6
"Line.L108"             ,   1,         0.0,        -0.0,         0.0,         0.0,         0.0,         0.0
"Line.L108"             ,   2,         0.0,         0.0
"Line.L109"             ,   1,        22.3,        11.1,         0.0,         0.0,         0.0,         0.0
"Line.L109"             ,   2,       -22.3,       -11.1
"Line.L110"             ,   1,         4.5,         2.2,         0.0,         0.0,         0.0,         0.0
"Line.L110"             ,   2,        -4.5,        -2.2
"Line.L111"             ,   1,        17.8,         8.9,         0.0,         0.0,         0.0,         0.0
"Line.L111"             ,   2,       -17.8,        -8.9
"Line.L112"             ,   1,        13.4,         6.7,         0.0,         0.0,         0.0,         0.0
"Line.L112"             ,   2,       -13.4,        -6.7
"Line.L113"             ,   1,         4.5,         2.2,         0.0,         0.0,         0.0,         0.0
"Line.L113"             ,   2,        -4.5,        -2.2
"Line.L114"             ,   1,       161.5,       105.4,         0.0,         0.0,         0.0,         0.0
"Line.L114"             ,   2,      -161.4,      -105.1
"Line.L116"             ,   1,       428.3,        15.0,         0.0,         0.0,         0.0,         0.0
"Line.L116"             ,   2,      -427.5,       -13.5
"Line.L117"             ,   1,       307.9,       -58.1,         0.0,         0.0,         0.0,         0.0
"Line.L117"             ,   2,      -307.5,        58.9
"Line.SW1"              ,   1,       764.0,       220.6,         0.0,         0.0,         0.0,         0.0
"Line.SW1"              ,   2,      -764.0,      -220.6
"Line.SW2"              ,   1,       428.3,        15.0,         0.0,         0.0,         0.0,         0.0
"Line.SW2"              ,   2,      -428.3,       -15.0
"Line.SW3"              ,   1,       161.5,       105.4,         0.0,         0.0,         0.0,         0.0
"Line.SW3"              ,   2,      -161.5,      -105.4
"Line.SW4"              ,   1,       307.9,       -58.1,         0.0,         0.0,         0.0,         0.0
"Line.SW4"              ,   2,      -307.9,        58.1
"Line.SW5"              ,   1,        71.3,        35.7,         0.0,         0.0,         0.0,         0.0
"Line.SW5"              ,   2,       -71.3,       -35.7
"Line.XFM1"             ,   1,         0.0,         0.0,         0.0,         0.0,         0.0,         0.0
"Line.XFM1"             ,   2,         0.0,         0.0
"Capacitor.C83"         ,   1,         0.0,      -186.2,         0.0,         0.0,         0.0,         0.0
"Capacitor.C83"         ,   2,         0.0,         0.0
"Capacitor.C88"         ,   1,         0.0,       -15.3,         0.0,         0.0,         0.0,         0.0
"Capacitor.C88"         ,   2,         0.0,         0.0
"Capacitor.C90"         ,   1,        -0.0,       -15.3,         0.0,         0.0,         0.0,         0.0
"Capacitor.C90"         ,   2,         0.0,         0.0
"Capacitor.C92"         ,   1,        -0.0,       -15.3,         0.0,         0.0,         0.0,         0.0
"Capacitor.C92"         ,   2,         0.0,         0.0
"Transformer.REG1A"     ,   1,       764.0,       220.6,         0.0,         0.0,         0.0,         0.0
"Transformer.REG1A"     ,   2,      -764.0,      -220.6
"Transformer.REG2A"     ,   1,        13.4,         6.7,         0.0,         0.0,         0.0,         0.0
"Transformer.REG2A"     ,   2,       -13.4,        -6.7
"Transformer.REG3A"     ,   1,        17.8,         8.9,         0.0,         0.0,         0.0,         0.0
"Transformer.REG3A"     ,   2,       -17.8,        -8.9
"Transformer.REG4A"     ,   1,       307.9,       -58.1,         0.0,         0.0,         0.0,         0.0
"Transformer.REG4A"     ,   2,      -307.9,        58.1
"Load.S1"               ,   1,         8.9,         4.5
"Load.S2"               ,   1,         4.5,         2.2
"Load.S4"               ,   1,         8.9,         4.5
"Load.S5"               ,   1,         4.5,         2.2
"Load.S6"               ,   1,         8.9,         4.5
"Load.S7"               ,   1,         4.5,         2.2
"Load.S9"               ,   1,         8.9,         4.5
"Load.S10"              ,   1,         4.5,         2.2
"Load.S11"              ,   1,         8.9,         4.5
"Load.S12"              ,   1,         4.5,         2.2
"Load.S16"              ,   1,         8.9,         4.5
"Load.S17"              ,   1,         4.5,         2.2
"Load.S19"              ,   1,         8.9,         4.5
"Load.S20"              ,   1,         8.9,         4.5
"Load.S22"              ,   1,         8.9,         4.5
"Load.S24"              ,   1,         8.9,         4.5
"Load.S28"              ,   1,         8.9,         4.5
"Load.S29"              ,   1,         8.9,         4.5
"Load.S30"              ,   1,         8.9,         4.5
"Load.S31"              ,   1,         4.5,         2.2
"Load.S32"              ,   1,         4.5,         2.2
"Load.S33"              ,   1,         8.9,         4.5
"Load.S34"              ,   1,         8.9,         4.5
"Load.S35"              ,   1,         8.9,         4.5
"Load.S37"              ,   1,         8.9,         4.5
"Load.S38"              ,   1,         4.5,         2.2
"Load.S39"              ,   1,         4.5,         2.2
"Load.S41"              ,   1,         4.5,         2.2
"Load.S42"              ,   1,         4.5,         2.2
"Load.S43"              ,   1,         8.9,         4.5
"Load.S45"              ,   1,         4.5,         2.2
"Load.S46"              ,   1,         4.5,         2.2
"Load.S47"              ,   1,        23.4,        16.7
"Load.S48"              ,   1,        46.8,        33.4
"Load.S49"              ,   1,        31.2,        21.2
"Load.S50"              ,   1,         8.9,         4.5
"Load.S51"              ,   1,         4.5,         2.2
"Load.S52"              ,   1,         8.9,         4.5
"Load.S53"              ,   1,         8.9,         4.5
"Load.S55"              ,   1,         4.5,         2.2
"Load.S56"              ,   1,         4.5,         2.2
"Load.S58"              ,   1,         4.5,         2.2
"Load.S59"              ,   1,         4.5,         2.2
"Load.S60"              ,   1,         4.5,         2.2
"Load.S62"              ,   1,         8.9,         4.5
"Load.S63"              ,   1,         8.9,         4.5
"Load.S64"              ,   1,        16.7,         7.8
"Load.S65"              ,   1,        31.2,        22.3
"Load.S66"              ,   1,        16.7,         7.8
"Load.S68"              ,   1,         4.5,         2.2
"Load.S69"              ,   1,         8.9,         4.5
"Load.S70"              ,   1,         4.5,         2.2
"Load.S71"              ,   1,         8.9,         4.5
"Load.S73"              ,   1,         8.9,         4.5
"Load.S74"              ,   1,         8.9,         4.5
"Load.S75"              ,   1,         8.9,         4.5
"Load.S76"              ,   1,        54.6,        40.1
"Load.S77"              ,   1,         8.9,         4.5
"Load.S79"              ,   1,         8.9,         4.5
"Load.S80"              ,   1,         8.9,         4.5
"Load.S82"              ,   1,         8.9,         4.5
"Load.S83"              ,   1,         4.5,         2.2
"Load.S84"              ,   1,         4.5,         2.2
"Load.S85"              ,   1,         8.9,         4.5
"Load.S86"              ,   1,         4.5,         2.2
"Load.S87"              ,   1,         8.9,         4.5
"Load.S88"              ,   1,         8.9,         4.5
"Load.S90"              ,   1,         8.9,         4.5
"Load.S92"              ,   1,         8.9,         4.5
"Load.S94"              ,   1,         8.9,         4.5
"Load.S95"              ,   1,         4.5,         2.2
"Load.S96"              ,   1,         4.5,         2.2
"Load.S98"              ,   1,         8.9,         4.5
"Load.S99"              ,   1,         8.9,         4.5
"Load.S100"             ,   1,         8.9,         4.5
"Load.S102"             ,   1,         4.5,         2.2
"Load.S103"             ,   1,         8.9,         4.5
"Load.S104"             ,   1,         8.9,         4.5
"Load.S106"             ,   1,         8.9,         4.5
"Load.S107"             ,   1,         8.9,         4.5
"Load.S109"             ,   1,         8.9,         4.5
"Load.S111"             ,   1,         4.5,         2.2
"Load.S112"             ,   1,         4.5,         2.2
"Load.S113"             ,   1,         8.9,         4.5
"Load.S114"             ,   1,         4.5,         2.2
"PVSystem.9"            ,   1,        -1.3,         0.0
"PVSystem.28"           ,   1,        -1.3,         0.0
"PVSystem.48"           ,   1,        -7.0,         0.0
"PVSystem.58"           ,   1,        -0.7,         0.0
"PVSystem.65"           ,   1,        -4.7,         0.0
"PVSystem.76"           ,   1,        -8.2,         0.0
"PVSystem.87"           ,   1,        -1.3,         0.0
"PVSystem.100"          ,   1,        -1.3,         0.0
"Storage.BATTERY9"      ,   1,         0.0,         0.0
"Storage.BATTERY28"     ,   1,         0.0,         0.0
"Storage.BATTERY48"     ,   1,         0.0,         0.0
"Storage.BATTERY58"     ,   1,         0.0,         0.0
"Storage.BATTERY65"     ,   1,         0.0,         0.0
"Storage.BATTERY76"     ,   1,         0.0,         0.0
"Storage.BATTERY87"     ,   1,         0.0,         0.0
"Storage.BATTERY100"    ,   1,         0.0,         0.0
